data_image0
_chemical_formula_structural       Li20Ge2P4S24Li20Ge2P4S24Li20Ge2P4S24Li20Ge2P4S24
_chemical_formula_sum              "Li80 Ge8 P16 S96"
_cell_length_a       17.2189
_cell_length_b       17.7426
_cell_length_c       13.0137
_cell_angle_alpha    91.9634
_cell_angle_beta     90.5838
_cell_angle_gamma    90.2322

_space_group_name_H-M_alt    "P 1"
_space_group_IT_number       1

loop_
  _space_group_symop_operation_xyz
  'x, y, z'

loop_
  _atom_site_type_symbol
  _atom_site_label
  _atom_site_symmetry_multiplicity
  _atom_site_fract_x
  _atom_site_fract_y
  _atom_site_fract_z
  _atom_site_occupancy
  Li  Li1       1.0  0.49441  0.25863  0.95177  1.0000
  Li  Li2       1.0  0.48210  0.25848  0.42618  1.0000
  Li  Li3       1.0  0.25529  0.48228  0.54889  1.0000
  Li  Li4       1.0  0.24807  0.49815  0.05084  1.0000
  Li  Li5       1.0  0.13021  0.14447  0.15745  1.0000
  Li  Li6       1.0  0.37187  0.37356  0.28223  1.0000
  Li  Li7       1.0  0.10791  0.40891  0.75332  1.0000
  Li  Li8       1.0  0.11467  0.37850  0.25184  1.0000
  Li  Li9       1.0  0.37716  0.11008  0.35148  1.0000
  Li  Li10      1.0  0.23104  0.25815  0.75062  1.0000
  Li  Li11      1.0  0.11478  0.11410  0.36599  1.0000
  Li  Li12      1.0  0.36703  0.12810  0.85739  1.0000
  Li  Li13      1.0  0.12245  0.38066  0.00569  1.0000
  Li  Li14      1.0  0.37052  0.13144  0.13140  1.0000
  Li  Li15      1.0  0.38196  0.36446  0.68948  1.0000
  Li  Li16      1.0  0.11048  0.12928  0.91965  1.0000
  Li  Li17      1.0  0.37395  0.38065  0.00835  1.0000
  Li  Li18      1.0  0.12224  0.35968  0.48518  1.0000
  Li  Li19      1.0  0.39171  0.10744  0.62564  1.0000
  Li  Li20      1.0  0.12050  0.10616  0.64982  1.0000
  Ge  Ge1       1.0  0.49837  0.24404  0.18333  1.0000
  Ge  Ge2       1.0  0.25449  0.49525  0.81562  1.0000
  P   P1        1.0  0.49666  0.48270  0.50161  1.0000
  P   P2        1.0  0.24616  0.25770  0.99301  1.0000
  P   P3        1.0  0.00429  0.24158  0.68468  1.0000
  P   P4        1.0  0.24388  0.00443  0.31011  1.0000
  S   S1        1.0  0.49438  0.08838  0.44355  1.0000
  S   S2        1.0  0.00239  0.39683  0.39031  1.0000
  S   S3        1.0  0.14816  0.26477  0.90138  1.0000
  S   S4        1.0  0.34194  0.26470  0.90006  1.0000
  S   S5        1.0  0.24779  0.34778  0.09669  1.0000
  S   S6        1.0  0.24369  0.15491  0.05961  1.0000
  S   S7        1.0  0.09773  0.47406  0.58778  1.0000
  S   S8        1.0  0.40080  0.47335  0.58999  1.0000
  S   S9        1.0  0.00348  0.14849  0.06544  1.0000
  S   S10       1.0  0.00054  0.35429  0.10358  1.0000
  S   S11       1.0  0.10605  0.24307  0.60120  1.0000
  S   S12       1.0  0.40792  0.24542  0.59006  1.0000
  S   S13       1.0  0.24237  0.40034  0.37532  1.0000
  S   S14       1.0  0.24775  0.08895  0.42211  1.0000
  S   S15       1.0  0.14289  0.49443  0.90514  1.0000
  S   S16       1.0  0.35601  0.49948  0.92135  1.0000
  S   S17       1.0  0.49649  0.33207  0.78680  1.0000
  S   S18       1.0  0.00165  0.14074  0.76070  1.0000
  S   S19       1.0  0.38998  0.23299  0.27307  1.0000
  S   S20       1.0  0.10019  0.23915  0.29114  1.0000
  S   S21       1.0  0.25874  0.10068  0.72178  1.0000
  S   S22       1.0  0.24648  0.39608  0.70376  1.0000
  S   S23       1.0  0.34293  0.00821  0.22150  1.0000
  S   S24       1.0  0.14617  0.01549  0.21931  1.0000
  Li  Li21      1.0  0.49441  0.75863  0.95177  1.0000
  Li  Li22      1.0  0.48210  0.75848  0.42618  1.0000
  Li  Li23      1.0  0.25529  0.98228  0.54889  1.0000
  Li  Li24      1.0  0.24807  0.99815  0.05084  1.0000
  Li  Li25      1.0  0.13021  0.64447  0.15745  1.0000
  Li  Li26      1.0  0.37187  0.87356  0.28223  1.0000
  Li  Li27      1.0  0.10791  0.90891  0.75332  1.0000
  Li  Li28      1.0  0.11467  0.87850  0.25184  1.0000
  Li  Li29      1.0  0.37716  0.61008  0.35148  1.0000
  Li  Li30      1.0  0.23104  0.75815  0.75062  1.0000
  Li  Li31      1.0  0.11478  0.61410  0.36599  1.0000
  Li  Li32      1.0  0.36703  0.62810  0.85739  1.0000
  Li  Li33      1.0  0.12245  0.88066  0.00569  1.0000
  Li  Li34      1.0  0.37052  0.63144  0.13140  1.0000
  Li  Li35      1.0  0.38196  0.86446  0.68948  1.0000
  Li  Li36      1.0  0.11048  0.62928  0.91965  1.0000
  Li  Li37      1.0  0.37395  0.88065  0.00835  1.0000
  Li  Li38      1.0  0.12224  0.85968  0.48518  1.0000
  Li  Li39      1.0  0.39171  0.60744  0.62564  1.0000
  Li  Li40      1.0  0.12050  0.60616  0.64982  1.0000
  Ge  Ge3       1.0  0.49837  0.74404  0.18333  1.0000
  Ge  Ge4       1.0  0.25449  0.99525  0.81562  1.0000
  P   P5        1.0  0.49666  0.98270  0.50161  1.0000
  P   P6        1.0  0.24616  0.75770  0.99301  1.0000
  P   P7        1.0  0.00429  0.74158  0.68468  1.0000
  P   P8        1.0  0.24388  0.50443  0.31011  1.0000
  S   S25       1.0  0.49438  0.58838  0.44355  1.0000
  S   S26       1.0  0.00239  0.89683  0.39031  1.0000
  S   S27       1.0  0.14816  0.76477  0.90138  1.0000
  S   S28       1.0  0.34194  0.76470  0.90006  1.0000
  S   S29       1.0  0.24779  0.84778  0.09669  1.0000
  S   S30       1.0  0.24369  0.65491  0.05961  1.0000
  S   S31       1.0  0.09773  0.97406  0.58778  1.0000
  S   S32       1.0  0.40080  0.97335  0.58999  1.0000
  S   S33       1.0  0.00348  0.64849  0.06544  1.0000
  S   S34       1.0  0.00054  0.85429  0.10358  1.0000
  S   S35       1.0  0.10605  0.74307  0.60120  1.0000
  S   S36       1.0  0.40792  0.74542  0.59006  1.0000
  S   S37       1.0  0.24237  0.90034  0.37532  1.0000
  S   S38       1.0  0.24775  0.58895  0.42211  1.0000
  S   S39       1.0  0.14289  0.99443  0.90514  1.0000
  S   S40       1.0  0.35601  0.99948  0.92135  1.0000
  S   S41       1.0  0.49649  0.83207  0.78680  1.0000
  S   S42       1.0  0.00165  0.64074  0.76070  1.0000
  S   S43       1.0  0.38998  0.73299  0.27307  1.0000
  S   S44       1.0  0.10019  0.73915  0.29114  1.0000
  S   S45       1.0  0.25874  0.60068  0.72178  1.0000
  S   S46       1.0  0.24648  0.89608  0.70376  1.0000
  S   S47       1.0  0.34293  0.50821  0.22150  1.0000
  S   S48       1.0  0.14617  0.51549  0.21931  1.0000
  Li  Li41      1.0  0.99441  0.25863  0.95177  1.0000
  Li  Li42      1.0  0.98210  0.25848  0.42618  1.0000
  Li  Li43      1.0  0.75529  0.48228  0.54889  1.0000
  Li  Li44      1.0  0.74807  0.49815  0.05084  1.0000
  Li  Li45      1.0  0.63021  0.14447  0.15745  1.0000
  Li  Li46      1.0  0.87187  0.37356  0.28223  1.0000
  Li  Li47      1.0  0.60791  0.40891  0.75332  1.0000
  Li  Li48      1.0  0.61467  0.37850  0.25184  1.0000
  Li  Li49      1.0  0.87716  0.11008  0.35148  1.0000
  Li  Li50      1.0  0.73104  0.25815  0.75062  1.0000
  Li  Li51      1.0  0.61478  0.11410  0.36599  1.0000
  Li  Li52      1.0  0.86703  0.12810  0.85739  1.0000
  Li  Li53      1.0  0.62245  0.38066  0.00569  1.0000
  Li  Li54      1.0  0.87052  0.13144  0.13140  1.0000
  Li  Li55      1.0  0.88196  0.36446  0.68948  1.0000
  Li  Li56      1.0  0.61048  0.12928  0.91965  1.0000
  Li  Li57      1.0  0.87395  0.38065  0.00835  1.0000
  Li  Li58      1.0  0.62224  0.35968  0.48518  1.0000
  Li  Li59      1.0  0.89171  0.10744  0.62564  1.0000
  Li  Li60      1.0  0.62050  0.10616  0.64982  1.0000
  Ge  Ge5       1.0  0.99837  0.24404  0.18333  1.0000
  Ge  Ge6       1.0  0.75449  0.49525  0.81562  1.0000
  P   P9        1.0  0.99666  0.48270  0.50161  1.0000
  P   P10       1.0  0.74616  0.25770  0.99301  1.0000
  P   P11       1.0  0.50429  0.24158  0.68468  1.0000
  P   P12       1.0  0.74388  0.00443  0.31011  1.0000
  S   S49       1.0  0.99438  0.08838  0.44355  1.0000
  S   S50       1.0  0.50239  0.39683  0.39031  1.0000
  S   S51       1.0  0.64816  0.26477  0.90138  1.0000
  S   S52       1.0  0.84194  0.26470  0.90006  1.0000
  S   S53       1.0  0.74779  0.34778  0.09669  1.0000
  S   S54       1.0  0.74369  0.15491  0.05961  1.0000
  S   S55       1.0  0.59773  0.47406  0.58778  1.0000
  S   S56       1.0  0.90080  0.47335  0.58999  1.0000
  S   S57       1.0  0.50348  0.14849  0.06544  1.0000
  S   S58       1.0  0.50054  0.35429  0.10358  1.0000
  S   S59       1.0  0.60605  0.24307  0.60120  1.0000
  S   S60       1.0  0.90792  0.24542  0.59006  1.0000
  S   S61       1.0  0.74237  0.40034  0.37532  1.0000
  S   S62       1.0  0.74775  0.08895  0.42211  1.0000
  S   S63       1.0  0.64289  0.49443  0.90514  1.0000
  S   S64       1.0  0.85601  0.49948  0.92135  1.0000
  S   S65       1.0  0.99649  0.33207  0.78680  1.0000
  S   S66       1.0  0.50165  0.14074  0.76070  1.0000
  S   S67       1.0  0.88998  0.23299  0.27307  1.0000
  S   S68       1.0  0.60019  0.23915  0.29114  1.0000
  S   S69       1.0  0.75874  0.10068  0.72178  1.0000
  S   S70       1.0  0.74648  0.39608  0.70376  1.0000
  S   S71       1.0  0.84293  0.00821  0.22150  1.0000
  S   S72       1.0  0.64617  0.01549  0.21931  1.0000
  Li  Li61      1.0  0.99441  0.75863  0.95177  1.0000
  Li  Li62      1.0  0.98210  0.75848  0.42618  1.0000
  Li  Li63      1.0  0.75529  0.98228  0.54889  1.0000
  Li  Li64      1.0  0.74807  0.99815  0.05084  1.0000
  Li  Li65      1.0  0.63021  0.64447  0.15745  1.0000
  Li  Li66      1.0  0.87187  0.87356  0.28223  1.0000
  Li  Li67      1.0  0.60791  0.90891  0.75332  1.0000
  Li  Li68      1.0  0.61467  0.87850  0.25184  1.0000
  Li  Li69      1.0  0.87716  0.61008  0.35148  1.0000
  Li  Li70      1.0  0.73104  0.75815  0.75062  1.0000
  Li  Li71      1.0  0.61478  0.61410  0.36599  1.0000
  Li  Li72      1.0  0.86703  0.62810  0.85739  1.0000
  Li  Li73      1.0  0.62245  0.88066  0.00569  1.0000
  Li  Li74      1.0  0.87052  0.63144  0.13140  1.0000
  Li  Li75      1.0  0.88196  0.86446  0.68948  1.0000
  Li  Li76      1.0  0.61048  0.62928  0.91965  1.0000
  Li  Li77      1.0  0.87395  0.88065  0.00835  1.0000
  Li  Li78      1.0  0.62224  0.85968  0.48518  1.0000
  Li  Li79      1.0  0.89171  0.60744  0.62564  1.0000
  Li  Li80      1.0  0.62050  0.60616  0.64982  1.0000
  Ge  Ge7       1.0  0.99837  0.74404  0.18333  1.0000
  Ge  Ge8       1.0  0.75449  0.99525  0.81562  1.0000
  P   P13       1.0  0.99666  0.98270  0.50161  1.0000
  P   P14       1.0  0.74616  0.75770  0.99301  1.0000
  P   P15       1.0  0.50429  0.74158  0.68468  1.0000
  P   P16       1.0  0.74388  0.50443  0.31011  1.0000
  S   S73       1.0  0.99438  0.58838  0.44355  1.0000
  S   S74       1.0  0.50239  0.89683  0.39031  1.0000
  S   S75       1.0  0.64816  0.76477  0.90138  1.0000
  S   S76       1.0  0.84194  0.76470  0.90006  1.0000
  S   S77       1.0  0.74779  0.84778  0.09669  1.0000
  S   S78       1.0  0.74369  0.65491  0.05961  1.0000
  S   S79       1.0  0.59773  0.97406  0.58778  1.0000
  S   S80       1.0  0.90080  0.97335  0.58999  1.0000
  S   S81       1.0  0.50348  0.64849  0.06544  1.0000
  S   S82       1.0  0.50054  0.85429  0.10358  1.0000
  S   S83       1.0  0.60605  0.74307  0.60120  1.0000
  S   S84       1.0  0.90792  0.74542  0.59006  1.0000
  S   S85       1.0  0.74237  0.90034  0.37532  1.0000
  S   S86       1.0  0.74775  0.58895  0.42211  1.0000
  S   S87       1.0  0.64289  0.99443  0.90514  1.0000
  S   S88       1.0  0.85601  0.99948  0.92135  1.0000
  S   S89       1.0  0.99649  0.83207  0.78680  1.0000
  S   S90       1.0  0.50165  0.64074  0.76070  1.0000
  S   S91       1.0  0.88998  0.73299  0.27307  1.0000
  S   S92       1.0  0.60019  0.73915  0.29114  1.0000
  S   S93       1.0  0.75874  0.60068  0.72178  1.0000
  S   S94       1.0  0.74648  0.89608  0.70376  1.0000
  S   S95       1.0  0.84293  0.50821  0.22150  1.0000
  S   S96       1.0  0.64617  0.51549  0.21931  1.0000
